From: bd@fluent@dartmouth.EDU (Brice Dowaliby)
Subject: Re: dogs
In-Reply-To: heathman@ncsa.uiuc.edu's message of Tue, 20 Apr 1993 20:25:24 GMT
Reply-To: bd%fluent@dartmouth.EDU
Organization: Fluent Inc., Lebanon NH
Distribution: na
Lines: 7

heathman@ncsa.uiuc.edu (Michael Heathman) writes:

>	Professionals who train guard dogs, when polled, gave themselves a
>1 in 4 chance of survival tackling a trained dog unarmed.  A trained guard
>dog is not to be trifled with.  An untrained mutt may be another story.

Of course *they'd* say that.  They're trying to sell their services.
