From: bd@fluent@dartmouth.EDU (Brice Dowaliby)
Subject: Re: Good Reasons to Wave at each other
In-Reply-To: mbeaving@bnr.ca's message of Tue, 20 Apr 1993 18:45:30 GMT
Reply-To: bd%fluent@dartmouth.EDU
Organization: Fluent Inc., Lebanon NH
Distribution: na
Lines: 7

mbeaving@bnr.ca (Michael Beavington) writes:

>The down side is that when I'm in my cage, I have on numerous occasions
>slammed my hand into the rolled up window in an effort to wave at
>a passing biker.  Ow.

Shouldn't this be in the DWI thread?
